/*--------------------------------*- C++ -*----------------------------------*\
| =========                 |                                                 |
| \\      /  F ield         | OpenFOAM: The Open Source CFD Toolbox           |
|  \\    /   O peration     | Version:  2.4.x                                 |
|   \\  /    A nd           | Web:      www.OpenFOAM.org                      |
|    \\/     M anipulation  |                                                 |
\*---------------------------------------------------------------------------*/
FoamFile
{
    version     2.0;
    format      ascii;
    class       volScalarField;
    location    "0";
    object      IDefault;
}
// * * * * * * * * * * * * * * * * * * * * * * * * * * * * * * * * * * * * * //

dimensions      [1 0 -3 0 0 0 0];

internalField   uniform 0;

boundaryField
{
    ground
    {
        type            greyDiffusiveRadiation;
        T               T;
        emissivityMode  lookup; //solidThermo
        emissivity      uniform 1.0;
        value           uniform 0;
    }

    burner 
    {
        type            greyDiffusiveRadiation;
        T               T;
        emissivityMode  lookup; //solidThermo
        emissivity      uniform 0.0;
        value           uniform 0;
    }


    outlet
    {
        type            greyDiffusiveRadiation;
        T               T;
        emissivityMode  lookup; //solidThermo
        emissivity      uniform 0.0;
        value           uniform 0;
    }

    region0_to_fuelRegion_fuel
    {
        type            greyDiffusiveRadiation;
        T               T;
        emissivityMode  solidRadiation; //lookup; 
        emissivity      uniform 1.0;
        value           uniform 0;
    }

}

// ************************************************************************* //
