/*--------------------------------*- C++ -*----------------------------------*\
| =========                 |                                                 |
| \\      /  F ield         | OpenFOAM: The Open Source CFD Toolbox           |
|  \\    /   O peration     | Version:  2.4.x                                 |
|   \\  /    A nd           | Web:      http://www.OpenFOAM.org               |
|    \\/     M anipulation  |                                                 |
\*---------------------------------------------------------------------------*/
FoamFile
{
    version     2.0;
    format      ascii;
    class       volScalarField;
    location    "0/pyrolysisRegion";
    object      qr;
}
// * * * * * * * * * * * * * * * * * * * * * * * * * * * * * * * * * * * * * //

dimensions      [1 0 -3 0 0 0 0];

internalField   uniform 0;

boundaryField
{
    ground_top
    {
        type            zeroGradient;
    }

    region0_to_groundRegion_ground
    {
        type            mappedField;
        sampleRegion    filmRegion;
        sampleMode      nearestPatchFace;
        samplePatch     region0_to_filmRegion_ground;
        flipNormals     yes;
        offset          (0 0 0);
        fieldName       QrNet;
        setAverage      no;
        average         0;
        value           uniform 0;
    }
}
// ************************************************************************* //

