/*--------------------------------*- C++ -*----------------------------------*\
| =========                 |                                                 |
| \\      /  F ield         | OpenFOAM: The Open Source CFD Toolbox           |
|  \\    /   O peration     | Version:  dev                                   |
|   \\  /    A nd           | Web:      www.OpenFOAM.org                      |
|    \\/     M anipulation  |                                                 |
\*---------------------------------------------------------------------------*/
FoamFile
{
    version     2.0;
    format      ascii;
    class       dictionary;
    location    "system";
    object      fvSolution;
}

// * * * * * * * * * * * * * * * * * * * * * * * * * * * * * * * * * * * * * //

solvers
{
    "rho.*"
    {
        solver          PCG;
        preconditioner  DIC;
        tolerance       1e-6;
        relTol          0;
    };

    p_rgh
    {
        solver          PCG;
        preconditioner  DIC;
        tolerance       1e-6;
        relTol          0.01;
    };

    p_rghFinal
    {
        $p_rgh;
        relTol          0.0;
    };

    ph_rgh
    {
        $p_rgh;
    }

    "U.*"
    {
        solver          smoothSolver;
        smoother        symGaussSeidel;
        tolerance       1e-6;
        relTol          0;
        maxIter         10;
    };
    
    UFinal
    {
	    $U;
	    tolerance	1e-8;
    };

    "(Yi|h|k).*"
    {
        $U;
        tolerance       1e-8;
    };

    Ii
    {
        solver              GAMG;
        tolerance           1e-4;
        relTol              0;
        smoother            DILU;
        cacheAgglomeration  true;
        nCellsInCoarsestLevel   10;
        agglomerator    faceAreaPair;
        mergeLevels     1;
    }

    G
    {
        solver          PCG;
        preconditioner  DIC;
        tolerance       1e-06;
        relTol          0;
    }
}


PIMPLE
{
    momentumPredictor yes;
    nOuterCorrectors  10;
    nCorrectors       2;
    nNonOrthogonalCorrectors 0;

    hydrostaticInitialization yes;
    nHydrostaticCorrectors 5;

    residualControl
    {
	    U
	    {
	      tolerance     1e-5;
	      relTol        0.;
	    }
	    p
	    {
	      tolerance     5e-4;
	      relTol        0;
	    }
    }

}


relaxationFactors
{
    fields
    {
        ".*"       1;
    }
}


// ************************************************************************* //
