/*--------------------------------*- C++ -*----------------------------------*\
| =========                 |                                                 |
| \\      /  F ield         | OpenFOAM: The Open Source CFD Toolbox           |
|  \\    /   O peration     | Version:  2.2.2                                 |
|   \\  /    A nd           | Web:      www.OpenFOAM.org                      |
|    \\/     M anipulation  |                                                 |
\*---------------------------------------------------------------------------*/
FoamFile
{
    version     2.0;
    format      ascii;
    class       dictionary;
    object      topoSetDict;
}

// * * * * * * * * * * * * * * * * * * * * * * * * * * * * * * * * * * * * * //

actions
(
    // burner faces
    {
        name    burner;
        type    faceSet;
        action  new;
        source  boxToFace;
        sourceInfo
        {
            box (-0.15 -0.15 -0.001) (0.15 0.15 0.001);
        }
    }
	
            //sideplane_z0.1
    {
        name    f0;
        type        faceSet;
        action      new;
        source      patchToFace;
        sourceInfo
        {
            patch    sides;
        }
    }
    // load cell set
    {
        name    c1;
        type        cellSet;
        action      new;
        source      boxToCell;
        sourceInfo
        {
            box (-1.5 -1.5 0.0) (1.5 1.5 0.1);  // desired plane location
        }
    }
    //keep in f0 all faces in c1
    {
        name    f0;
        type        faceSet;
        action      subset;
        source      cellToFace;
        sourceInfo
        {
            set     c1;
            option all;
        }
    }
    {
        name    sideplane_z0.1;
        type        faceZoneSet;
        action      new;
        source      setToFaceZone;
        sourceInfo
        {
            faceSet     f0;
            setsToFaceZone     c1;
            flip            false;
        }
    }                                           
            //sideplane_z0.2
    {
        name    f0;
        type        faceSet;
        action      new;
        source      patchToFace;
        sourceInfo
        {
            patch    sides;
        }
    }
    // load cell set
    {
        name    c1;
        type        cellSet;
        action      new;
        source      boxToCell;
        sourceInfo
        {
            box (-1.5 -1.5 0.1) (1.5 1.5 0.2);  // desired plane location
        }
    }
    //keep in f0 all faces in c1
    {
        name    f0;
        type        faceSet;
        action      subset;
        source      cellToFace;
        sourceInfo
        {
            set     c1;
            option all;
        }
    }
    {
        name    sideplane_z0.2;
        type        faceZoneSet;
        action      new;
        source      setToFaceZone;
        sourceInfo
        {
            faceSet     f0;
            setsToFaceZone     c1;
            flip            false;
        }
    }                                
            //sideplane_z0.3
    {
        name    f0;
        type        faceSet;
        action      new;
        source      patchToFace;
        sourceInfo
        {
            patch    sides;
        }
    }
    // load cell set
    {
        name    c1;
        type        cellSet;
        action      new;
        source      boxToCell;
        sourceInfo
        {
            box (-1.5 -1.5 0.2) (1.5 1.5 0.3);  // desired plane location
        }
    }
    //keep in f0 all faces in c1
    {
        name    f0;
        type        faceSet;
        action      subset;
        source      cellToFace;
        sourceInfo
        {
            set     c1;
            option all;
        }
    }
    {
        name    sideplane_z0.3;
        type        faceZoneSet;
        action      new;
        source      setToFaceZone;
        sourceInfo
        {
            faceSet     f0;
            setsToFaceZone     c1;
            flip            false;
        }
    }                                    
            //sideplane_z0.4
    {
        name    f0;
        type        faceSet;
        action      new;
        source      patchToFace;
        sourceInfo
        {
            patch    sides;
        }
    }
    // load cell set
    {
        name    c1;
        type        cellSet;
        action      new;
        source      boxToCell;
        sourceInfo
        {
            box (-1.5 -1.5 0.3) (1.5 1.5 0.4);  // desired plane location
        }
    }
    //keep in f0 all faces in c1
    {
        name    f0;
        type        faceSet;
        action      subset;
        source      cellToFace;
        sourceInfo
        {
            set     c1;
            option all;
        }
    }
    {
        name    sideplane_z0.4;
        type        faceZoneSet;
        action      new;
        source      setToFaceZone;
        sourceInfo
        {
            faceSet     f0;
            setsToFaceZone     c1;
            flip            false;
        }
    }                                  
            //sideplane_z0.5
    {
        name    f0;
        type        faceSet;
        action      new;
        source      patchToFace;
        sourceInfo
        {
            patch    sides;
        }
    }
    // load cell set
    {
        name    c1;
        type        cellSet;
        action      new;
        source      boxToCell;
        sourceInfo
        {
            box (-1.5 -1.5 0.4) (1.5 1.5 0.5);  // desired plane location
        }
    }
    //keep in f0 all faces in c1
    {
        name    f0;
        type        faceSet;
        action      subset;
        source      cellToFace;
        sourceInfo
        {
            set     c1;
            option all;
        }
    }
    {
        name    sideplane_z0.5;
        type        faceZoneSet;
        action      new;
        source      setToFaceZone;
        sourceInfo
        {
            faceSet     f0;
            setsToFaceZone     c1;
            flip            false;
        }
    }                         
            //sideplane_z0.6
    {
        name    f0;
        type        faceSet;
        action      new;
        source      patchToFace;
        sourceInfo
        {
            patch    sides;
        }
    }
    // load cell set
    {
        name    c1;
        type        cellSet;
        action      new;
        source      boxToCell;
        sourceInfo
        {
            box (-1.5 -1.5 0.5) (1.5 1.5 0.6);  // desired plane location
        }
    }
    //keep in f0 all faces in c1
    {
        name    f0;
        type        faceSet;
        action      subset;
        source      cellToFace;
        sourceInfo
        {
            set     c1;
            option all;
        }
    }
    {
        name    sideplane_z0.6;
        type        faceZoneSet;
        action      new;
        source      setToFaceZone;
        sourceInfo
        {
            faceSet     f0;
            setsToFaceZone     c1;
            flip            false;
        }
    }                       
            //sideplane_z0.7
    {
        name    f0;
        type        faceSet;
        action      new;
        source      patchToFace;
        sourceInfo
        {
            patch    sides;
        }
    }
    // load cell set
    {
        name    c1;
        type        cellSet;
        action      new;
        source      boxToCell;
        sourceInfo
        {
            box (-1.5 -1.5 0.6) (1.5 1.5 0.7);  // desired plane location
        }
    }
    //keep in f0 all faces in c1
    {
        name    f0;
        type        faceSet;
        action      subset;
        source      cellToFace;
        sourceInfo
        {
            set     c1;
            option all;
        }
    }
    {
        name    sideplane_z0.7;
        type        faceZoneSet;
        action      new;
        source      setToFaceZone;
        sourceInfo
        {
            faceSet     f0;
            setsToFaceZone     c1;
            flip            false;
        }
    }                       
            //sideplane_z0.8
    {
        name    f0;
        type        faceSet;
        action      new;
        source      patchToFace;
        sourceInfo
        {
            patch    sides;
        }
    }
    // load cell set
    {
        name    c1;
        type        cellSet;
        action      new;
        source      boxToCell;
        sourceInfo
        {
            box (-1.5 -1.5 0.7) (1.5 1.5 0.8);  // desired plane location
        }
    }
    //keep in f0 all faces in c1
    {
        name    f0;
        type        faceSet;
        action      subset;
        source      cellToFace;
        sourceInfo
        {
            set     c1;
            option all;
        }
    }
    {
        name    sideplane_z0.8;
        type        faceZoneSet;
        action      new;
        source      setToFaceZone;
        sourceInfo
        {
            faceSet     f0;
            setsToFaceZone     c1;
            flip            false;
        }
    }                                  	
//here	
    //sideplane_z0.9
    {
        name    f0;
        type        faceSet;
        action      new;
        source      patchToFace;
        sourceInfo
        {
            patch    sides;
        }
    }
    // load cell set
    {
        name    c1;
        type        cellSet;
        action      new;
        source      boxToCell;
        sourceInfo
        {
            box (-1.5 -1.5 0.8) (1.5 1.5 0.9);  // desired plane location
        }
    }
    //keep in f0 all faces in c1
    {
        name    f0;
        type        faceSet;
        action      subset;
        source      cellToFace;
        sourceInfo
        {
            set     c1;
            option all;
        }
    }
    {
        name    sideplane_z0.9;
        type        faceZoneSet;
        action      new;
        source      setToFaceZone;
        sourceInfo
        {
            faceSet     f0;
            setsToFaceZone     c1;
            flip            false;
        }
    }
    //sideplane_z1.0
    {
        name    f0;
        type        faceSet;
        action      new;
        source      patchToFace;
        sourceInfo
        {
            patch    sides;
        }
    }
    // load cell set
    {
        name    c1;
        type        cellSet;
        action      new;
        source      boxToCell;
        sourceInfo
        {
            box (-1.5 -1.5 0.9) (1.5 1.5 1.0);  // desired plane location
        }
    }
    //keep in f0 all faces in c1
    {
        name    f0;
        type        faceSet;
        action      subset;
        source      cellToFace;
        sourceInfo
        {
            set     c1;
            option all;
        }
    }
    {
        name    sideplane_z1.0;
        type        faceZoneSet;
        action      new;
        source      setToFaceZone;
        sourceInfo
        {
            faceSet     f0;
            setsToFaceZone     c1;
            flip            false;
        }
    }
        //sideplane_z1.1
    {
        name    f0;
        type        faceSet;
        action      new;
        source      patchToFace;
        sourceInfo
        {
            patch    sides;
        }
    }
    // load cell set
    {
        name    c1;
        type        cellSet;
        action      new;
        source      boxToCell;
        sourceInfo
        {
            box (-1.5 -1.5 1.0) (1.5 1.5 1.1);  // desired plane location
        }
    }
    //keep in f0 all faces in c1
    {
        name    f0;
        type        faceSet;
        action      subset;
        source      cellToFace;
        sourceInfo
        {
            set     c1;
            option all;
        }
    }
    {
        name    sideplane_z1.1;
        type        faceZoneSet;
        action      new;
        source      setToFaceZone;
        sourceInfo
        {
            faceSet     f0;
            setsToFaceZone     c1;
            flip            false;
        }
    }
        //sideplane_z1.2
    {
        name    f0;
        type        faceSet;
        action      new;
        source      patchToFace;
        sourceInfo
        {
            patch    sides;
        }
    }
    // load cell set
    {
        name    c1;
        type        cellSet;
        action      new;
        source      boxToCell;
        sourceInfo
        {
            box (-1.5 -1.5 1.1) (1.5 1.5 1.2);  // desired plane location
        }
    }
    //keep in f0 all faces in c1
    {
        name    f0;
        type        faceSet;
        action      subset;
        source      cellToFace;
        sourceInfo
        {
            set     c1;
            option all;
        }
    }
    {
        name    sideplane_z1.2;
        type        faceZoneSet;
        action      new;
        source      setToFaceZone;
        sourceInfo
        {
            faceSet     f0;
            setsToFaceZone     c1;
            flip            false;
        }
    }    
            //sideplane_z1.3
    {
        name    f0;
        type        faceSet;
        action      new;
        source      patchToFace;
        sourceInfo
        {
            patch    sides;
        }
    }
    // load cell set
    {
        name    c1;
        type        cellSet;
        action      new;
        source      boxToCell;
        sourceInfo
        {
            box (-1.5 -1.5 1.2) (1.5 1.5 1.3);  // desired plane location
        }
    }
    //keep in f0 all faces in c1
    {
        name    f0;
        type        faceSet;
        action      subset;
        source      cellToFace;
        sourceInfo
        {
            set     c1;
            option all;
        }
    }
    {
        name    sideplane_z1.3;
        type        faceZoneSet;
        action      new;
        source      setToFaceZone;
        sourceInfo
        {
            faceSet     f0;
            setsToFaceZone     c1;
            flip            false;
        }
    }    
            //sideplane_z1.4
    {
        name    f0;
        type        faceSet;
        action      new;
        source      patchToFace;
        sourceInfo
        {
            patch    sides;
        }
    }
    // load cell set
    {
        name    c1;
        type        cellSet;
        action      new;
        source      boxToCell;
        sourceInfo
        {
            box (-1.5 -1.5 1.3) (1.5 1.5 1.4);  // desired plane location
        }
    }
    //keep in f0 all faces in c1
    {
        name    f0;
        type        faceSet;
        action      subset;
        source      cellToFace;
        sourceInfo
        {
            set     c1;
            option all;
        }
    }
    {
        name    sideplane_z1.4;
        type        faceZoneSet;
        action      new;
        source      setToFaceZone;
        sourceInfo
        {
            faceSet     f0;
            setsToFaceZone     c1;
            flip            false;
        }
    }        
            //sideplane_z1.5
    {
        name    f0;
        type        faceSet;
        action      new;
        source      patchToFace;
        sourceInfo
        {
            patch    sides;
        }
    }
    // load cell set
    {
        name    c1;
        type        cellSet;
        action      new;
        source      boxToCell;
        sourceInfo
        {
            box (-1.5 -1.5 1.4) (1.5 1.5 1.5);  // desired plane location
        }
    }
    //keep in f0 all faces in c1
    {
        name    f0;
        type        faceSet;
        action      subset;
        source      cellToFace;
        sourceInfo
        {
            set     c1;
            option all;
        }
    }
    {
        name    sideplane_z1.5;
        type        faceZoneSet;
        action      new;
        source      setToFaceZone;
        sourceInfo
        {
            faceSet     f0;
            setsToFaceZone     c1;
            flip            false;
        }
    }            
            //sideplane_z1.6
    {
        name    f0;
        type        faceSet;
        action      new;
        source      patchToFace;
        sourceInfo
        {
            patch    sides;
        }
    }
    // load cell set
    {
        name    c1;
        type        cellSet;
        action      new;
        source      boxToCell;
        sourceInfo
        {
            box (-1.5 -1.5 1.5) (1.5 1.5 1.6);  // desired plane location
        }
    }
    //keep in f0 all faces in c1
    {
        name    f0;
        type        faceSet;
        action      subset;
        source      cellToFace;
        sourceInfo
        {
            set     c1;
            option all;
        }
    }
    {
        name    sideplane_z1.6;
        type        faceZoneSet;
        action      new;
        source      setToFaceZone;
        sourceInfo
        {
            faceSet     f0;
            setsToFaceZone     c1;
            flip            false;
        }
    }                
            //sideplane_z1.7
    {
        name    f0;
        type        faceSet;
        action      new;
        source      patchToFace;
        sourceInfo
        {
            patch    sides;
        }
    }
    // load cell set
    {
        name    c1;
        type        cellSet;
        action      new;
        source      boxToCell;
        sourceInfo
        {
            box (-1.5 -1.5 1.6) (1.5 1.5 1.7);  // desired plane location
        }
    }
    //keep in f0 all faces in c1
    {
        name    f0;
        type        faceSet;
        action      subset;
        source      cellToFace;
        sourceInfo
        {
            set     c1;
            option all;
        }
    }
    {
        name    sideplane_z1.7;
        type        faceZoneSet;
        action      new;
        source      setToFaceZone;
        sourceInfo
        {
            faceSet     f0;
            setsToFaceZone     c1;
            flip            false;
        }
    }                    
            //sideplane_z1.8
    {
        name    f0;
        type        faceSet;
        action      new;
        source      patchToFace;
        sourceInfo
        {
            patch    sides;
        }
    }
    // load cell set
    {
        name    c1;
        type        cellSet;
        action      new;
        source      boxToCell;
        sourceInfo
        {
            box (-1.5 -1.5 1.7) (1.5 1.5 1.8);  // desired plane location
        }
    }
    //keep in f0 all faces in c1
    {
        name    f0;
        type        faceSet;
        action      subset;
        source      cellToFace;
        sourceInfo
        {
            set     c1;
            option all;
        }
    }
    {
        name    sideplane_z1.8;
        type        faceZoneSet;
        action      new;
        source      setToFaceZone;
        sourceInfo
        {
            faceSet     f0;
            setsToFaceZone     c1;
            flip            false;
        }
    }                        
            //sideplane_z1.9
    {
        name    f0;
        type        faceSet;
        action      new;
        source      patchToFace;
        sourceInfo
        {
            patch    sides;
        }
    }
    // load cell set
    {
        name    c1;
        type        cellSet;
        action      new;
        source      boxToCell;
        sourceInfo
        {
            box (-1.5 -1.5 1.8) (1.5 1.5 1.9);  // desired plane location
        }
    }
    //keep in f0 all faces in c1
    {
        name    f0;
        type        faceSet;
        action      subset;
        source      cellToFace;
        sourceInfo
        {
            set     c1;
            option all;
        }
    }
    {
        name    sideplane_z1.9;
        type        faceZoneSet;
        action      new;
        source      setToFaceZone;
        sourceInfo
        {
            faceSet     f0;
            setsToFaceZone     c1;
            flip            false;
        }
    }                         
            //sideplane_z2.0
    {
        name    f0;
        type        faceSet;
        action      new;
        source      patchToFace;
        sourceInfo
        {
            patch    sides;
        }
    }
    // load cell set
    {
        name    c1;
        type        cellSet;
        action      new;
        source      boxToCell;
        sourceInfo
        {
            box (-1.5 -1.5 1.9) (1.5 1.5 2.0);  // desired plane location
        }
    }
    //keep in f0 all faces in c1
    {
        name    f0;
        type        faceSet;
        action      subset;
        source      cellToFace;
        sourceInfo
        {
            set     c1;
            option all;
        }
    }
    {
        name    sideplane_z2.0;
        type        faceZoneSet;
        action      new;
        source      setToFaceZone;
        sourceInfo
        {
            faceSet     f0;
            setsToFaceZone     c1;
            flip            false;
        }
    }                    
            //sideplane_z2.1
    {
        name    f0;
        type        faceSet;
        action      new;
        source      patchToFace;
        sourceInfo
        {
            patch    sides;
        }
    }
    // load cell set
    {
        name    c1;
        type        cellSet;
        action      new;
        source      boxToCell;
        sourceInfo
        {
            box (-1.5 -1.5 2.0) (1.5 1.5 2.1);  // desired plane location
        }
    }
    //keep in f0 all faces in c1
    {
        name    f0;
        type        faceSet;
        action      subset;
        source      cellToFace;
        sourceInfo
        {
            set     c1;
            option all;
        }
    }
    {
        name    sideplane_z2.1;
        type        faceZoneSet;
        action      new;
        source      setToFaceZone;
        sourceInfo
        {
            faceSet     f0;
            setsToFaceZone     c1;
            flip            false;
        }
    }              
            //sideplane_z2.2
    {
        name    f0;
        type        faceSet;
        action      new;
        source      patchToFace;
        sourceInfo
        {
            patch    sides;
        }
    }
    // load cell set
    {
        name    c1;
        type        cellSet;
        action      new;
        source      boxToCell;
        sourceInfo
        {
            box (-1.5 -1.5 2.1) (1.5 1.5 2.2);  // desired plane location
        }
    }
    //keep in f0 all faces in c1
    {
        name    f0;
        type        faceSet;
        action      subset;
        source      cellToFace;
        sourceInfo
        {
            set     c1;
            option all;
        }
    }
    {
        name    sideplane_z2.2;
        type        faceZoneSet;
        action      new;
        source      setToFaceZone;
        sourceInfo
        {
            faceSet     f0;
            setsToFaceZone     c1;
            flip            false;
        }
    }                    
            //sideplane_z2.3
    {
        name    f0;
        type        faceSet;
        action      new;
        source      patchToFace;
        sourceInfo
        {
            patch    sides;
        }
    }
    // load cell set
    {
        name    c1;
        type        cellSet;
        action      new;
        source      boxToCell;
        sourceInfo
        {
            box (-1.5 -1.5 2.2) (1.5 1.5 2.3);  // desired plane location
        }
    }
    //keep in f0 all faces in c1
    {
        name    f0;
        type        faceSet;
        action      subset;
        source      cellToFace;
        sourceInfo
        {
            set     c1;
            option all;
        }
    }
    {
        name    sideplane_z2.3;
        type        faceZoneSet;
        action      new;
        source      setToFaceZone;
        sourceInfo
        {
            faceSet     f0;
            setsToFaceZone     c1;
            flip            false;
        }
    }    
            //sideplane_z2.4
    {
        name    f0;
        type        faceSet;
        action      new;
        source      patchToFace;
        sourceInfo
        {
            patch    sides;
        }
    }
    // load cell set
    {
        name    c1;
        type        cellSet;
        action      new;
        source      boxToCell;
        sourceInfo
        {
            box (-1.5 -1.5 2.3) (1.5 1.5 2.4);  // desired plane location
        }
    }
    //keep in f0 all faces in c1
    {
        name    f0;
        type        faceSet;
        action      subset;
        source      cellToFace;
        sourceInfo
        {
            set     c1;
            option all;
        }
    }
    {
        name    sideplane_z2.4;
        type        faceZoneSet;
        action      new;
        source      setToFaceZone;
        sourceInfo
        {
            faceSet     f0;
            setsToFaceZone     c1;
            flip            false;
        }
    }                         
            //sideplane_z2.5
    {
        name    f0;
        type        faceSet;
        action      new;
        source      patchToFace;
        sourceInfo
        {
            patch    sides;
        }
    }
    // load cell set
    {
        name    c1;
        type        cellSet;
        action      new;
        source      boxToCell;
        sourceInfo
        {
            box (-1.5 -1.5 2.4) (1.5 1.5 2.5);  // desired plane location
        }
    }
    //keep in f0 all faces in c1
    {
        name    f0;
        type        faceSet;
        action      subset;
        source      cellToFace;
        sourceInfo
        {
            set     c1;
            option all;
        }
    }
    {
        name    sideplane_z2.5;
        type        faceZoneSet;
        action      new;
        source      setToFaceZone;
        sourceInfo
        {
            faceSet     f0;
            setsToFaceZone     c1;
            flip            false;
        }
    }                             
            //sideplane_z2.6
    {
        name    f0;
        type        faceSet;
        action      new;
        source      patchToFace;
        sourceInfo
        {
            patch    sides;
        }
    }
    // load cell set
    {
        name    c1;
        type        cellSet;
        action      new;
        source      boxToCell;
        sourceInfo
        {
            box (-1.5 -1.5 2.5) (1.5 1.5 2.6);  // desired plane location
        }
    }
    //keep in f0 all faces in c1
    {
        name    f0;
        type        faceSet;
        action      subset;
        source      cellToFace;
        sourceInfo
        {
            set     c1;
            option all;
        }
    }
    {
        name    sideplane_z2.6;
        type        faceZoneSet;
        action      new;
        source      setToFaceZone;
        sourceInfo
        {
            faceSet     f0;
            setsToFaceZone     c1;
            flip            false;
        }
    }                                 
            //sideplane_z2.7
    {
        name    f0;
        type        faceSet;
        action      new;
        source      patchToFace;
        sourceInfo
        {
            patch    sides;
        }
    }
    // load cell set
    {
        name    c1;
        type        cellSet;
        action      new;
        source      boxToCell;
        sourceInfo
        {
            box (-1.5 -1.5 2.6) (1.5 1.5 2.7);  // desired plane location
        }
    }
    //keep in f0 all faces in c1
    {
        name    f0;
        type        faceSet;
        action      subset;
        source      cellToFace;
        sourceInfo
        {
            set     c1;
            option all;
        }
    }
    {
        name    sideplane_z2.7;
        type        faceZoneSet;
        action      new;
        source      setToFaceZone;
        sourceInfo
        {
            faceSet     f0;
            setsToFaceZone     c1;
            flip            false;
        }
    }                                     
            //sideplane_z2.8
    {
        name    f0;
        type        faceSet;
        action      new;
        source      patchToFace;
        sourceInfo
        {
            patch    sides;
        }
    }
    // load cell set
    {
        name    c1;
        type        cellSet;
        action      new;
        source      boxToCell;
        sourceInfo
        {
            box (-1.5 -1.5 2.7) (1.5 1.5 2.8);  // desired plane location
        }
    }
    //keep in f0 all faces in c1
    {
        name    f0;
        type        faceSet;
        action      subset;
        source      cellToFace;
        sourceInfo
        {
            set     c1;
            option all;
        }
    }
    {
        name    sideplane_z2.8;
        type        faceZoneSet;
        action      new;
        source      setToFaceZone;
        sourceInfo
        {
            faceSet     f0;
            setsToFaceZone     c1;
            flip            false;
        }
    }                                         
            //sideplane_z2.9
    {
        name    f0;
        type        faceSet;
        action      new;
        source      patchToFace;
        sourceInfo
        {
            patch    sides;
        }
    }
    // load cell set
    {
        name    c1;
        type        cellSet;
        action      new;
        source      boxToCell;
        sourceInfo
        {
            box (-1.5 -1.5 2.8) (1.5 1.5 2.9);  // desired plane location
        }
    }
    //keep in f0 all faces in c1
    {
        name    f0;
        type        faceSet;
        action      subset;
        source      cellToFace;
        sourceInfo
        {
            set     c1;
            option all;
        }
    }
    {
        name    sideplane_z2.9;
        type        faceZoneSet;
        action      new;
        source      setToFaceZone;
        sourceInfo
        {
            faceSet     f0;
            setsToFaceZone     c1;
            flip            false;