/*-----------------------------*-C++-*---------------------------------------*\
| =========                 |                                                 |
| \\      /  F ield         | OpenFOAM: The Open Source CFD Toolbox           |
|  \\    /   O peration     | Version:  1.4                                   |
|   \\  /    A nd           | Web:      http://www.openfoam.org               |
|    \\/     M anipulation  |                                                 |
\*---------------------------------------------------------------------------*/

FoamFile
{
    version         2.0;
    format          ascii;

    root            "";
    case            "";
    instance        "";
    local           "";

    class           dictionary;
    object          blockMeshDict;
}

// * * * * * * * * * * * * * * * * * * * * * * * * * * * * * * * * * * * * * //

convertToMeters 1;

vertices
(
    ( -80  -80 0)
    ( 80  -80 0)
    ( 80  80 0)
    ( -80  80 0)
    ( -80  -80 320)
    ( 80  -80 320)
    ( 80  80 320)
    ( -80  80 320)
);

blocks
(
    hex (0 1 2 3 4 5 6 7)   (10 10 20) simpleGrading (1 1 1)
);

edges
(
);

boundary
(
    outlet
    {
        type patch;
        faces
        (
            (1 2 6 5)
            (0 1 5 4)
            (0 4 7 3)
            (7 6 2 3)
            (4 5 6 7)
        );
    }

    ground
    {
        type wall;
        faces
        (
            (0 3 2 1)
        );
    }
);

mergePatchPairs
(
);

// ************************************************************************* //
