/*---------------------------------------------------------------------------*\
| =========                 |                                                 |
| \\      /  F ield         | OpenFOAM: The Open Source CFD Toolbox           |
|  \\    /   O peration     | Version:  1.0                                   |
|   \\  /    A nd           | Web:      http://www.openfoam.org               |
|    \\/     M anipulation  |                                                 |
\*---------------------------------------------------------------------------*/
FoamFile
{
    version         2.0;
    format          ascii;
    class           dictionary;
    object          createPatchDict;
}
// * * * * * * * * * * * * * * * * * * * * * * * * * * * * * * * * * * * * * //


pointSync false;

patches
(
    {
        name fuelBox;
        patchInfo
        {
            type patch;
        }
        constructFrom patches;
        patches ("box_.*");
    }

    {
        name burner;
        patchInfo
        {
            type patch;
        }
        constructFrom set;
        set burner;
    }
);

