/*--------------------------------*- C++ -*----------------------------------*\
| =========                 |                                                 |
| \\      /  F ield         | OpenFOAM: The Open Source CFD Toolbox           |
|  \\    /   O peration     | Version:  2.4.x                                 |
|   \\  /    A nd           | Web:      www.OpenFOAM.org                      |
|    \\/     M anipulation  |                                                 |
\*---------------------------------------------------------------------------*/
FoamFile
{
    version     2.0;
    format      ascii;
    class       dictionary;
    location    "constant";
    object      radiationProperties;
}
// * * * * * * * * * * * * * * * * * * * * * * * * * * * * * * * * * * * * * //

radiation       on;

radiationModel  fvDOM;

noRadiation
{
}

P1Coeffs
{
}

fvDOMCoeffs
{
    nPhi    2; //3;          // azimuthal angles in PI/2 on X-Y.(from Y to X)
    nTheta  2; //4;          // polar angles in PI (from Z to X-Y plane)
    tolerance 1e-2;   // convergence criteria for radiation iteration
    maxIter 5;         // maximum number of iterations
}

// Number of flow iterations per radiation iteration
solverFreq 30;

absorptionEmissionModel greyMeanAbsorptionEmission;

greyMeanAbsorptionEmissionCoeffs
{
    //Name of the table containing species in moles in function of ft for IFC.
    lookUpTableFileName     "SpeciesTable";
    //Proportionality constant (EhrrCoeff*HRR) to be emitted. Source term in
    //RTE
    EhrrCoeff                0.2; //0.3;  
}

scatterModel    none;

transmissivityModel    none;

// ************************************************************************* //
