/*--------------------------------*- C++ -*----------------------------------*\
| =========                 |                                                 |
| \\      /  F ield         | OpenFOAM: The Open Source CFD Toolbox           |
|  \\    /   O peration     | Version:  v1806                                 |
|   \\  /    A nd           | Web:      www.OpenFOAM.com                      |
|    \\/     M anipulation  |                                                 |
\*---------------------------------------------------------------------------*/
FoamFile
{
    version     2.0;
    format      ascii;
    class       dictionary;
    location    "constant";
    object      surfaceFilmProperties;
}
// * * * * * * * * * * * * * * * * * * * * * * * * * * * * * * * * * * * * * //

active           true;

surfaceFilmModel thermoSingleLayerExtraQ;

region           filmRegion;

//thermoSingleLayerFmBoxCoeffs
thermoSingleLayerExtraQCoeffs
{
    filmThermoModel liquid;
    liquidCoeffs
    {
        useReferenceValues  no;
        liquid      H2O;
        Tmin	    273.15;
        Tmax	    400;
    }

    filmViscosityModel liquid;

    turbulence  laminar;
    laminarCoeffs
    {
        Cf          0.005;
    }

    forces (
            // surfaceShear
            thermocapillary
            //filmDiversion
            );

    filmDiversionCoeffs
    {
        coeff   0.0;
    }

    deltaWet 0.0002;
    hydrophilic true;
    hydrophilicDryScale 0.02;
    hydrophilicWetScale 0.5;

    preHeatingCells 3;
    preHeatingZoneMaxHeight 15.0;
    absorptionRate 0.0;        // mm/s
    SaturationThickness 0.01;     // mm

    thermoModel singleComponent; // constant
//    thermoModel constant; // constant
    liquid      H2O;
//    rho0        rho0 [1 -3 0 0 0] 1000;
//    mu0         mu0 [1 -1 -1 0 0] 1e-3;
//    sigma0      sigma0 [1 0 -2 0 0] 0.07;
//    cp0         cp0 [0 2 -2 -1 0] 4187;

    Tmax 500.0;
    Tmin 300.0;

    //qRadConstant qRadConstant [0 0 0 0 0] 1000000;
    qRadConstant qRadConstant [0 0 0 0 0] 0;
    //size of window used in Jaaps single-panel radiative experiment
    qRadXMax qRadXMax [0 1 0 0 0] 0.65; // this number estimated from photograph
    qRadXMin qRadXMin [0 1 0 0 0] 0.24;  //
    qRadYMax qRadYMax [0 1 0 0 0] 0.485;
    qRadYMin qRadYMin [0 1 0 0 0] 0.025;
    qRadBegin qRadBegin [0 0 1 0 0] 4;
    qRadEnd qRadEnd     [0 0 1 0 0] 22;
    qRadEmissivity qRadRadEmissivity  [0 0 0 0 0] 0.96;
    qRadAbsorptivity qRadRadAbsorptivity  [0 0 0 0 0] 0.96;

    solveLumpedCapacitance false;
    //radiationModel none;
    radiationModel standardRadiation;

    primaryRadiationCoeffs
    {
    }
    standardRadiationCoeffs
    {
        deltaMin 1e-6;
        beta     0.75;
        kappaBar 0.25;
    }

    deltaStable deltaStable [0 1 0 0 0] 0;

    Cf          0.005;

    partialWetting true;
    partialWettingCoeffs
    {
        hydrophilic true;
        dryToggle 0.01;
        wetToggle 0.5;
        contactAngleMean          75;
        contactAngleStdDev        10;
        contactAngleMax           100;
        contactAngleMin           50;
        //contactAngleMean          50;
        //contactAngleStdDev        40;
        //contactAngleMax           100;
        //contactAngleMin           0;
        //contactAngleCoefficient          0.20;
        contactAngleCoefficient          0.40;
        //contactAngleCoefficient          0.0032e-10;
        criticalFilmThickness   criticalFilmThickness [ 0 1 0 0 0 ] 0.00020;
        //criticalFilmThickness   criticalFilmThickness [ 0 1 0 0 0 ] 0.00039;
    }
    htcw        htcw [1 0 -3 -1 0] 1e3; // 0.0;
    htcs        htcs [1 0 -3 -1 0] 1e-8; // 0.0;

    rho0         rho [1 -3 0 0 0] 1000;
    mu0          mu [1 -1 -1 0 0] 1e-3;
    sigma0       sigma [1 0 -2 0 0] 0.07;
    cp0          cp [0 2 -2 -1 0] 4187;
    kappa0      kappa0 [1 1 -3 -1 0] 0.6;
    hVap0      hVap0 [0 2 -2 0 0] 2265645.037;

    //injectionModels ();
    injectionModels (drippingInjection); 

    drippingInjectionCoeffs
    {
        cloudName    reactingCloud1;

        deltaStable  0.001;

        particlesPerParcel 100.0;

        parcelDistribution
        {        
            type         uniform;
            uniformDistribution              
            {                            
                minValue        0.001;   
                maxValue        0.002;  
                d               ( 7.5e-05 );
                n               ( 0.5 );    
            }                               
        }                                   
    }

    phaseChangeModel standardPhaseChange; // only option currently available
    //phaseChangeModel none; // only option currently available
    standardPhaseChangeCoeffs
    {
        deltaMin         1e-6; // mass transfer turned off when film thickness below this value
        L                1; // length scale used in mean Nusselt and Sherwood correlation
        Tb              373.15;
    }

    massAbsorptionModel none;
    //massAbsorptionModel standardMassAbsorption;
    standardMassAbsorptionCoeffs
    {
        deltaMin         1e-6; // mass absorption turned off when film thickness below this value
    }

    upperSurfaceModels
    {
        //heatTransferModel mappedConvectiveHeatTransfer;  // gets htc from gas-phase calculation
        heatTransferModel constant;  // submodels/thermo/heatTransferModel/constantHeatTransfer/constantHeatTransfer.C
        constantCoeffs
        {
            c0                10;
        }
    }

    lowerSurfaceModels
    {
        heatTransferModel constant;  // submodels/thermo/heatTransferModel/constantHeatTransfer/constantHeatTransfer.C
        constantCoeffs
        {
            c0                10;
        }
    }
}


thermoSingleLayerCoeffs
{
    filmThermoModel liquid;

    liquidCoeffs
    {
        useReferenceValues  no;
        liquid      H2O;
        Tmin        300;
        Tmax        400;
    }

    Tmin        300;
    Tmax        400;

    filmViscosityModel liquid;

    turbulence  laminar;
    laminarCoeffs
    {
        Cf          0.005;
    }

    forces ( 
            thermocapillary 
            contactAngle
           );

    contactAngleCoeffs
    {
        Ccf             0.016;//0.001;
        contactAngleDistribution
        {
            type            normal;
            normalDistribution
            {
                minValue        50;
                maxValue        100;
                expectation     75;
                variance        10;//100;
            }
        }
        timeIntervalDistribution
        {
            type            normal;
            normalDistribution
            {
                minValue        100;
                maxValue        101;
                expectation     100.5;
                variance        0.2;
            }
        }
        zeroForcePatches ();
    }

    surfaceShearCoeffs
    {
        Cf          0.005;
    }

    deltaWet 0.0002;
    hydrophilic true;
    hydrophilicDryScale       0.02;
    hydrophilicWetScale       0.5;

    radiationModel primaryRadiation;
    primaryRadiationCoeffs
    {
    }
    standardRadiationCoeffs
    {
        deltaMin 1e-6;
        beta     0.75;
        kappaBar 0.25;
    }

    augmentedRadiation false;
    augmentedRadiationCoeffs{
        qRadConstant qRadConstant [1 0 -3 0 0] 0; 
        qRadXMax qRadXMax [0 1 0 0 0] 0.65; // this number estimated from photograph
        qRadXMin qRadXMin [0 1 0 0 0] 0.24;  //
        //qRadYMax qRadYMax [0 1 0 0 0] 0.51;
        //qRadYMin qRadYMin [0 1 0 0 0] 0.0;
        qRadYMax qRadYMax [0 1 0 0 0] 0.485;
        qRadYMin qRadYMin [0 1 0 0 0] 0.025;
        qRadBegin qRadBegin [0 0 1 0 0] 2;
        qRadEnd qRadEnd     [0 0 1 0 0] 100;
        qRadEmissivity qRadRadEmissivity  [0 0 0 0 0] 0.96;
        qRadAbsorptivity qRadRadAbsorptivity  [0 0 0 0 0] 0.96;
    }

    solveLumpedCapacitance false;
    solveLumpedCapacitanceCoeffs{
        thickness thickness [0  1  0  0 0] 1.2e-3;
        density   density   [1 -3  0  0 0] 2700.0; //Al
        cp        cp        [0  2 -2 -1 0]  875.0; //Al
        k         k         [1  1 -3 -1 0]  177.0; //Al
        Tinit     Tinit     [0  0  0  1 0]  298.15;
    }

    deltaStable deltaStable [0 1 0 0 0] 0;

    perfectlyWettedInlet true;
    perfectlyWettedInletCoeffs{
        inletNames (
                "side3"
                );
        offsetDistance offsetDistance  [0 1 0 0 0] 0.35;
    }

    partialWetting true;
    partialWettingCoeffs{
        hydrophilic               true;
        dryToggle                 0.01;
        wetToggle                 0.5;
        contactAngleMean          75;
        contactAngleStdDev        10;
        contactAngleMax           100;
        contactAngleMin           50;
        contactAngleCoefficient   1;
        criticalFilmThickness     criticalFilmThickness [ 0 1 0 0 0 ] 0.00020;
    }

    phaseChangeModel standardPhaseChange; 
    standardPhaseChangeCoeffs
    {
        Tb              373.15;
        deltaMin         1e-8; // mass transfer turned off when film thickness below this value
        L                1; // length scale used in mean Nusselt and Sherwood correlation
    }

    massAbsorptionModel standardMassAbsorption;
    standardMassAbsorptionCoeffs
    {
        deltaMin         1e-8; // mass absorption turned off when film thickness below this value
    }

    injectionModels (drippingInjection); 

    drippingInjectionCoeffs
    {
        cloudName    reactingCloud1;

        deltaStable  0.001;

        particlesPerParcel 100.0;

        parcelDistribution
        {        
            type         uniform;
            uniformDistribution              
            {                            
                minValue        0.001;   
                maxValue        0.002;  
                d               ( 7.5e-05 );
                n               ( 0.5 );    
            }                               
        }                                   
    }

    upperSurfaceModels
    {
        heatTransferModel constant;
        constantCoeffs
        {
            c0                10;
        }
    }

    lowerSurfaceModels
    {
        heatTransferModel constant;
        constantCoeffs
        {
            c0                10;
        }
    }
    
}

